New England/PSSE Cases/Easy/Winter68Generous.RAW
 0,    100.00, 33, 0, 0, 60.00       / August 22, 2017 10:02:11; Simulator Version 19; BuildDate 2016_7_14


    1,'1           ', 345.0000,2,   1,   1,   1,1.02493, -26.0299, 1.10000, 0.98000, 1.10000, 0.98000
    2,'2           ', 345.0000,1,   1,   1,   1,1.02319, -26.3198, 1.06000, 0.92000, 1.06000, 0.92000
    3,'3           ', 138.0000,2,   1,   1,   1,1.02000, -14.7523, 1.10000, 0.98000, 1.10000, 0.98000
    4,'4           ', 138.0000,1,   1,   1,   1,0.96266, -30.0163, 1.06000, 0.92000, 1.06000, 0.92000
    5,'5           ', 230.0000,1,   1,   1,   1,0.97459, -27.3964, 1.06000, 0.92000, 1.06000, 0.92000
    6,'6           ', 138.0000,1,   1,   1,   1,1.00795, -13.6908, 1.06000, 0.92000, 1.06000, 0.92000
    7,'7           ', 138.0000,2,   1,   1,   1,1.02000, -26.8554, 1.10000, 0.98000, 1.10000, 0.98000
    8,'8           ', 230.0000,2,   1,   1,   1,1.02000, -24.8703, 1.10000, 0.98000, 1.10000, 0.98000
    9,'9           ', 345.0000,1,   1,   1,   1,1.02702, -26.3977, 1.06000, 0.92000, 1.06000, 0.92000
   10,'10          ', 138.0000,3,   1,   1,   1,1.02000,   0.0000, 1.10000, 0.98000, 1.10000, 0.98000
   11,'11          ', 138.0000,1,   1,   1,   1,1.01592,  -1.3384, 1.06000, 0.92000, 1.06000, 0.92000
   12,'12          ', 138.0000,1,   1,   1,   1,1.01460,  -2.4201, 1.06000, 0.92000, 1.06000, 0.92000
   13,'13          ', 345.0000,1,   1,   1,   1,1.01376,  -5.2298, 1.06000, 0.92000, 1.06000, 0.92000
   14,'14          ', 230.0000,1,   1,   1,   1,1.01210, -13.8392, 1.06000, 0.92000, 1.06000, 0.92000
   15,'15          ', 230.0000,1,   1,   1,   1,1.00331, -18.7752, 1.06000, 0.92000, 1.06000, 0.92000
   16,'16          ', 138.0000,1,   1,   1,   1,1.00170, -21.9837, 1.06000, 0.92000, 1.06000, 0.92000
   17,'17          ', 138.0000,1,   1,   1,   1,0.97553, -24.7722, 1.06000, 0.92000, 1.06000, 0.92000
   18,'18          ', 138.0000,1,   1,   1,   1,0.97120, -24.1549, 1.06000, 0.92000, 1.06000, 0.92000
   19,'19          ', 138.0000,1,   1,   1,   1,0.98770, -22.1074, 1.06000, 0.92000, 1.06000, 0.92000
   20,'20          ',  69.0000,1,   1,   1,   1,0.99895, -19.1796, 1.06000, 0.92000, 1.06000, 0.92000
   21,'21          ', 138.0000,1,   1,   1,   1,0.97589, -25.3664, 1.06000, 0.92000, 1.06000, 0.92000
   22,'22          ', 230.0000,1,   1,   1,   1,0.98878,  -9.9587, 1.06000, 0.92000, 1.06000, 0.92000
   23,'23          ', 230.0000,1,   1,   1,   1,0.99302, -12.6202, 1.06000, 0.92000, 1.06000, 0.92000
   24,'24          ', 230.0000,2,   1,   1,   1,1.02000, -15.8578, 1.10000, 0.98000, 1.10000, 0.98000
   25,'25          ', 230.0000,1,   1,   1,   1,1.00332, -26.5668, 1.06000, 0.92000, 1.06000, 0.92000
   26,'26          ', 345.0000,2,   1,   1,   1,1.02000, -35.6101, 1.10000, 0.98000, 1.10000, 0.98000
   27,'27          ', 230.0000,1,   1,   1,   1,0.98226, -33.9969, 1.06000, 0.92000, 1.06000, 0.92000
   28,'28          ', 138.0000,2,   1,   1,   1,1.02000, -27.6352, 1.10000, 0.98000, 1.10000, 0.98000
   29,'29          ', 138.0000,1,   1,   1,   1,1.01396, -25.3515, 1.06000, 0.92000, 1.06000, 0.92000
   30,'30          ',  14.0000,2,   1,   1,   1,1.02000, -24.4718, 1.10000, 0.98000, 1.10000, 0.98000
   31,'31          ',  14.0000,2,   1,   1,   1,1.02000,  -8.6898, 1.10000, 0.98000, 1.10000, 0.98000
   32,'32          ',  14.0000,2,   1,   1,   1,1.02000,   2.6715, 1.10000, 0.98000, 1.10000, 0.98000
   33,'33          ',  14.0000,2,   1,   1,   1,1.02000, -18.6734, 1.10000, 0.98000, 1.10000, 0.98000
   34,'34          ',  14.0000,2,   1,   1,   1,1.02000, -15.6386, 1.10000, 0.98000, 1.10000, 0.98000
   35,'35          ',  14.0000,2,   1,   1,   1,1.02000,   1.2564, 1.10000, 0.98000, 1.10000, 0.98000
   36,'36          ',  14.0000,2,   1,   1,   1,1.02000,  -9.4435, 1.10000, 0.98000, 1.10000, 0.98000
   37,'37          ',  14.0000,2,   1,   1,   1,1.02000, -24.6585, 1.10000, 0.98000, 1.10000, 0.98000
   38,'38          ',  14.0000,2,   1,   1,   1,1.02001, -22.6902, 1.10000, 0.98000, 1.10000, 0.98000
   39,'39          ', 345.0000,1,   1,   1,   1,1.01598, -33.2776, 1.06000, 0.92000, 1.06000, 0.92000
   40,'40          ', 345.0000,1,   1,   1,   1,1.00900, -37.0580, 1.06000, 0.92000, 1.06000, 0.92000
   41,'41          ', 345.0000,1,   1,   1,   1,0.98808, -33.2936, 1.06000, 0.92000, 1.06000, 0.92000
   42,'42          ', 345.0000,1,   1,   1,   1,1.01978, -38.0394, 1.06000, 0.92000, 1.06000, 0.92000
   43,'43          ', 345.0000,1,   1,   1,   1,1.01547, -35.9825, 1.06000, 0.92000, 1.06000, 0.92000
   44,'44          ', 230.0000,1,   1,   1,   1,1.00494, -28.4853, 1.06000, 0.92000, 1.06000, 0.92000
   45,'45          ', 345.0000,1,   1,   1,   1,1.01376, -28.1985, 1.06000, 0.92000, 1.06000, 0.92000
   46,'46          ', 138.0000,1,   1,   1,   1,0.94765, -30.5911, 1.06000, 0.92000, 1.06000, 0.92000
   47,'47          ', 138.0000,1,   1,   1,   1,0.89987, -34.5232, 1.06000, 0.92000, 1.06000, 0.92000
   48,'48          ', 345.0000,1,   1,   1,   1,0.96015, -30.5410, 1.06000, 0.92000, 1.06000, 0.92000
   49,'49          ', 138.0000,2,   1,   1,   1,1.02000, -24.1537, 1.10000, 0.98000, 1.10000, 0.98000
   50,'50          ', 138.0000,1,   1,   1,   1,0.97692, -29.6401, 1.06000, 0.92000, 1.06000, 0.92000
   51,'51          ', 138.0000,1,   1,   1,   1,0.98328, -34.4545, 1.06000, 0.92000, 1.06000, 0.92000
   52,'52          ', 345.0000,2,   1,   1,   1,1.02000, -27.9319, 1.10000, 0.98000, 1.10000, 0.98000
   53,'53          ', 138.0000,1,   1,   1,   1,0.96850, -33.1849, 1.06000, 0.92000, 1.06000, 0.92000
   54,'54          ', 230.0000,2,   1,   1,   1,1.02000, -24.2481, 1.10000, 0.98000, 1.10000, 0.98000
   55,'55          ', 230.0000,1,   1,   1,   1,1.00172, -27.5840, 1.06000, 0.92000, 1.06000, 0.92000
   56,'56          ', 345.0000,2,   1,   1,   1,1.02000, -13.9760, 1.10000, 0.98000, 1.10000, 0.98000
   57,'57          ', 138.0000,1,   1,   1,   1,0.92901, -32.7023, 1.06000, 0.92000, 1.06000, 0.92000
   58,'58          ', 345.0000,1,   1,   1,   1,0.99660, -15.0691, 1.06000, 0.92000, 1.06000, 0.92000
   59,'59          ', 345.0000,1,   1,   1,   1,1.01082, -17.7140, 1.06000, 0.92000, 1.06000, 0.92000
   60,'60          ', 138.0000,1,   1,   1,   1,0.93001, -29.9945, 1.06000, 0.92000, 1.06000, 0.92000
   61,'61          ', 230.0000,1,   1,   1,   1,1.01022, -20.7752, 1.06000, 0.92000, 1.06000, 0.92000
   62,'62          ', 345.0000,1,   1,   1,   1,0.98992, -16.0453, 1.06000, 0.92000, 1.06000, 0.92000
   63,'63          ', 138.0000,1,   1,   1,   1,0.92110, -32.1653, 1.06000, 0.92000, 1.06000, 0.92000
   64,'64          ', 138.0000,1,   1,   1,   1,0.95029, -23.0163, 1.06000, 0.92000, 1.06000, 0.92000
   65,'65          ', 138.0000,1,   1,   1,   1,0.99246, -27.7494, 1.06000, 0.92000, 1.06000, 0.92000
   66,'66          ', 345.0000,1,   1,   1,   1,1.00081, -14.7804, 1.06000, 0.92000, 1.06000, 0.92000
   67,'67          ', 138.0000,1,   1,   1,   1,0.97013, -34.3638, 1.06000, 0.92000, 1.06000, 0.92000
   68,'68          ', 138.0000,1,   1,   1,   1,0.98202, -32.7110, 1.06000, 0.92000, 1.06000, 0.92000
   69,'69          ', 345.0000,2,   1,   1,   1,1.02000,  -5.4792, 1.10000, 0.98000, 1.10000, 0.98000
   70,'70          ', 138.0000,1,   1,   1,   1,1.00632,  -8.0231, 1.06000, 0.92000, 1.06000, 0.92000
   71,'71          ', 345.0000,1,   1,   1,   1,1.00824, -14.0794, 1.06000, 0.92000, 1.06000, 0.92000
   72,'72          ', 138.0000,2,   1,   1,   1,0.98670, -34.3786, 1.10000, 0.98000, 1.10000, 0.98000
   73,'73          ', 138.0000,1,   1,   1,   1,0.98298, -34.4468, 1.06000, 0.92000, 1.06000, 0.92000
   74,'74          ', 345.0000,1,   1,   1,   1,0.98020, -27.8424, 1.06000, 0.92000, 1.06000, 0.92000
   75,'75          ', 138.0000,1,   1,   1,   1,0.95129, -30.5441, 1.06000, 0.92000, 1.06000, 0.92000
   76,'76          ', 345.0000,2,   1,   1,   1,1.02000, -12.8701, 1.10000, 0.98000, 1.10000, 0.98000
   77,'77          ', 138.0000,1,   1,   1,   1,0.99011, -31.8738, 1.06000, 0.92000, 1.06000, 0.92000
   78,'78          ', 345.0000,2,   1,   1,   1,1.02000, -38.0804, 1.10000, 0.98000, 1.10000, 0.98000
   79,'79          ', 345.0000,1,   1,   1,   1,1.03519, -45.4024, 1.06000, 0.92000, 1.06000, 0.92000
   80,'80          ', 345.0000,2,   1,   1,   1,1.02001, -40.2180, 1.10000, 0.98000, 1.10000, 0.98000
   81,'81          ', 345.0000,1,   1,   1,   1,1.01574, -38.4234, 1.06000, 0.92000, 1.06000, 0.92000
   82,'82          ', 345.0000,2,   1,   1,   1,1.02001, -32.6158, 1.10000, 0.98000, 1.10000, 0.98000
   83,'83          ', 345.0000,1,   1,   1,   1,1.01992, -32.1333, 1.06000, 0.92000, 1.06000, 0.92000
   84,'84          ', 138.0000,2,   1,   1,   1,1.02000, -28.9911, 1.10000, 0.98000, 1.10000, 0.98000
   85,'85          ', 230.0000,1,   1,   1,   1,0.98629, -31.8322, 1.06000, 0.92000, 1.06000, 0.92000
   86,'86          ', 138.0000,1,   1,   1,   1,0.98431, -30.6486, 1.06000, 0.92000, 1.06000, 0.92000
   87,'87          ', 345.0000,1,   1,   1,   1,1.04277, -45.3625, 1.06000, 0.92000, 1.06000, 0.92000
   88,'88          ', 138.0000,1,   1,   1,   1,1.01080, -28.8809, 1.06000, 0.92000, 1.06000, 0.92000
   89,'89          ', 138.0000,1,   1,   1,   1,0.94147, -36.6690, 1.06000, 0.92000, 1.06000, 0.92000
   90,'90          ', 230.0000,1,   1,   1,   1,0.98125, -13.5042, 1.06000, 0.92000, 1.06000, 0.92000
   91,'91          ', 230.0000,1,   1,   1,   1,0.96714, -15.5848, 1.06000, 0.92000, 1.06000, 0.92000
   92,'92          ', 345.0000,1,   1,   1,   1,0.97374, -15.6947, 1.06000, 0.92000, 1.06000, 0.92000
   93,'93          ', 345.0000,1,   1,   1,   1,0.97755, -17.1267, 1.06000, 0.92000, 1.06000, 0.92000
   94,'94          ', 138.0000,1,   1,   1,   1,0.98831, -24.3145, 1.06000, 0.92000, 1.06000, 0.92000
   95,'95          ', 138.0000,1,   1,   1,   1,0.97470, -23.5928, 1.06000, 0.92000, 1.06000, 0.92000
   96,'96          ', 138.0000,1,   1,   1,   1,0.97501, -23.0133, 1.06000, 0.92000, 1.06000, 0.92000
   97,'97          ', 345.0000,1,   1,   1,   1,0.98914, -19.7760, 1.06000, 0.92000, 1.06000, 0.92000
   98,'98          ', 345.0000,1,   1,   1,   1,1.01352, -20.1031, 1.06000, 0.92000, 1.06000, 0.92000
   99,'99          ', 345.0000,1,   1,   1,   1,0.98005, -21.5451, 1.06000, 0.92000, 1.06000, 0.92000
  100,'100         ', 138.0000,1,   1,   1,   1,0.97691, -11.5945, 1.06000, 0.92000, 1.06000, 0.92000
  101,'101         ', 345.0000,1,   1,   1,   1,0.97402, -17.5681, 1.06000, 0.92000, 1.06000, 0.92000
  102,'102         ', 138.0000,1,   1,   1,   1,0.97373, -25.1518, 1.06000, 0.92000, 1.06000, 0.92000
  103,'103         ', 138.0000,2,   1,   1,   1,1.02000, -21.9563, 1.10000, 0.98000, 1.10000, 0.98000
  104,'104         ', 138.0000,1,   1,   1,   1,0.96442, -25.4666, 1.06000, 0.92000, 1.06000, 0.92000
  105,'105         ', 138.0000,1,   1,   1,   1,0.97713, -23.8317, 1.06000, 0.92000, 1.06000, 0.92000
  106,'106         ', 138.0000,1,   1,   1,   1,0.96931, -26.0815, 1.06000, 0.92000, 1.06000, 0.92000
  107,'107         ', 138.0000,1,   1,   1,   1,0.97089, -25.4880, 1.06000, 0.92000, 1.06000, 0.92000
  108,'108         ', 230.0000,1,   1,   1,   1,0.96647, -25.2344, 1.06000, 0.92000, 1.06000, 0.92000
  109,'109         ', 138.0000,1,   1,   1,   1,0.97576, -27.5151, 1.06000, 0.92000, 1.06000, 0.92000
  110,'110         ', 138.0000,1,   1,   1,   1,0.97879, -23.0093, 1.06000, 0.92000, 1.06000, 0.92000
  111,'111         ', 345.0000,1,   1,   1,   1,0.98165, -22.8074, 1.06000, 0.92000, 1.06000, 0.92000
  112,'112         ', 138.0000,1,   1,   1,   1,0.94959, -28.4413, 1.06000, 0.92000, 1.06000, 0.92000
  113,'113         ', 138.0000,1,   1,   1,   1,0.93649, -29.7257, 1.06000, 0.92000, 1.06000, 0.92000
  114,'114         ', 138.0000,1,   1,   1,   1,0.97165, -24.8051, 1.06000, 0.92000, 1.06000, 0.92000
  115,'115         ', 345.0000,1,   1,   1,   1,0.97802, -15.1369, 1.06000, 0.92000, 1.06000, 0.92000
  116,'116         ', 230.0000,1,   1,   1,   1,1.00492, -24.6483, 1.06000, 0.92000, 1.06000, 0.92000
  117,'117         ', 138.0000,1,   1,   1,   1,0.98792, -25.4196, 1.06000, 0.92000, 1.06000, 0.92000
  118,'118         ', 138.0000,1,   1,   1,   1,0.97524, -24.3450, 1.06000, 0.92000, 1.06000, 0.92000
  119,'119         ', 138.0000,1,   1,   1,   1,0.97166, -25.1256, 1.06000, 0.92000, 1.06000, 0.92000
  120,'120         ', 230.0000,2,   1,   1,   1,1.02000, -24.8048, 1.10000, 0.98000, 1.10000, 0.98000
  121,'121         ', 230.0000,1,   1,   1,   1,1.01436, -25.3434, 1.06000, 0.92000, 1.06000, 0.92000
  122,'122         ', 138.0000,1,   1,   1,   1,0.97178, -27.5158, 1.06000, 0.92000, 1.06000, 0.92000
  123,'123         ', 230.0000,1,   1,   1,   1,1.00625, -23.6378, 1.06000, 0.92000, 1.06000, 0.92000
  124,'124         ', 230.0000,1,   1,   1,   1,0.96325, -29.0545, 1.06000, 0.92000, 1.06000, 0.92000
  125,'125         ', 138.0000,1,   1,   1,   1,0.96709, -27.1478, 1.06000, 0.92000, 1.06000, 0.92000
  126,'126         ', 230.0000,1,   1,   1,   1,0.98132, -27.8394, 1.06000, 0.92000, 1.06000, 0.92000
  127,'127         ', 230.0000,1,   1,   1,   1,0.97414, -28.4306, 1.06000, 0.92000, 1.06000, 0.92000
  128,'128         ', 138.0000,2,   1,   1,   1,1.02000, -18.5743, 1.10000, 0.98000, 1.10000, 0.98000
  129,'129         ', 138.0000,1,   1,   1,   1,0.96003, -27.2632, 1.06000, 0.92000, 1.06000, 0.92000
  130,'130         ', 138.0000,2,   1,   1,   1,1.02000, -21.5708, 1.10000, 0.98000, 1.10000, 0.98000
  131,'131         ', 138.0000,1,   1,   1,   1,0.95303, -28.4324, 1.06000, 0.92000, 1.06000, 0.92000
  132,'132         ', 230.0000,1,   1,   1,   1,0.97976, -26.3470, 1.06000, 0.92000, 1.06000, 0.92000
  133,'133         ', 230.0000,1,   1,   1,   1,0.98003, -27.4476, 1.06000, 0.92000, 1.06000, 0.92000
  134,'134         ', 230.0000,1,   1,   1,   1,0.97354, -26.3142, 1.06000, 0.92000, 1.06000, 0.92000
  135,'135         ', 345.0000,1,   1,   1,   1,1.00238, -23.0913, 1.06000, 0.92000, 1.06000, 0.92000
  136,'136         ', 138.0000,1,   1,   1,   1,0.96839, -25.0671, 1.06000, 0.92000, 1.06000, 0.92000
  137,'137         ', 345.0000,1,   1,   1,   1,1.01255, -21.9835, 1.06000, 0.92000, 1.06000, 0.92000
  138,'138         ', 345.0000,1,   1,   1,   1,0.97879, -21.9841, 1.06000, 0.92000, 1.06000, 0.92000
  139,'139         ', 345.0000,1,   1,   1,   1,1.01454, -27.6978, 1.06000, 0.92000, 1.06000, 0.92000
  140,'140         ', 138.0000,1,   1,   1,   1,0.98994,  -9.8777, 1.06000, 0.92000, 1.06000, 0.92000
  141,'141         ', 345.0000,2,   1,   1,   1,1.02000,  -5.5412, 1.10000, 0.98000, 1.10000, 0.98000
  142,'142         ', 230.0000,1,   1,   1,   1,0.96684, -28.5293, 1.06000, 0.92000, 1.06000, 0.92000
  143,'143         ', 230.0000,2,   1,   1,   1,1.02000, -21.1498, 1.10000, 0.98000, 1.10000, 0.98000
  144,'144         ', 230.0000,1,   1,   1,   1,1.01054, -22.5544, 1.06000, 0.92000, 1.06000, 0.92000
  145,'145         ', 138.0000,1,   1,   1,   1,0.98467, -22.9379, 1.06000, 0.92000, 1.06000, 0.92000
  146,'146         ', 345.0000,2,   1,   1,   1,1.01889, -21.1607, 1.10000, 0.98000, 1.10000, 0.98000
  147,'147         ', 138.0000,1,   1,   1,   1,0.96533, -25.9130, 1.06000, 0.92000, 1.06000, 0.92000
  148,'148         ', 345.0000,1,   1,   1,   1,0.97820, -16.5069, 1.06000, 0.92000, 1.06000, 0.92000
  149,'149         ', 138.0000,2,   1,   1,   1,1.02000, -20.3664, 1.10000, 0.98000, 1.10000, 0.98000
  150,'150         ', 345.0000,1,   1,   1,   1,0.94956, -32.1667, 1.06000, 0.92000, 1.06000, 0.92000
  151,'151         ', 345.0000,1,   1,   1,   1,1.01446, -21.7387, 1.06000, 0.92000, 1.06000, 0.92000
  152,'152         ', 138.0000,1,   1,   1,   1,0.94524, -28.6979, 1.06000, 0.92000, 1.06000, 0.92000
  153,'153         ', 345.0000,1,   1,   1,   1,0.99770, -23.5855, 1.06000, 0.92000, 1.06000, 0.92000
  154,'154         ', 230.0000,1,   1,   1,   1,0.97699, -31.9011, 1.06000, 0.92000, 1.06000, 0.92000
  155,'155         ', 138.0000,1,   1,   1,   1,0.96119, -32.0075, 1.06000, 0.92000, 1.06000, 0.92000
  156,'156         ', 345.0000,1,   1,   1,   1,1.00316, -25.1919, 1.06000, 0.92000, 1.06000, 0.92000
  157,'157         ', 138.0000,2,   1,   1,   1,1.02000, -22.5905, 1.10000, 0.98000, 1.10000, 0.98000
  158,'158         ', 138.0000,1,   1,   1,   1,0.98289, -28.1101, 1.06000, 0.92000, 1.06000, 0.92000
  159,'159         ', 345.0000,1,   1,   1,   1,0.99687, -30.1413, 1.06000, 0.92000, 1.06000, 0.92000
  160,'160         ', 230.0000,1,   1,   1,   1,0.96063, -35.0408, 1.06000, 0.92000, 1.06000, 0.92000
  161,'161         ', 138.0000,1,   1,   1,   1,0.98519, -28.4357, 1.06000, 0.92000, 1.06000, 0.92000
  162,'162         ', 345.0000,2,   1,   1,   1,1.02000, -20.6231, 1.10000, 0.98000, 1.10000, 0.98000
  163,'163         ', 230.0000,1,   1,   1,   1,1.00152, -25.7862, 1.06000, 0.92000, 1.06000, 0.92000
  164,'164         ', 138.0000,1,   1,   1,   1,0.97722, -26.9360, 1.06000, 0.92000, 1.06000, 0.92000
  165,'165         ', 230.0000,2,   1,   1,   1,1.02000, -17.3446, 1.10000, 0.98000, 1.10000, 0.98000
  166,'166         ', 138.0000,2,   1,   1,   1,1.02000, -23.5347, 1.10000, 0.98000, 1.10000, 0.98000
  167,'167         ', 345.0000,1,   1,   1,   1,1.02306, -37.1428, 1.06000, 0.92000, 1.06000, 0.92000
  168,'168         ', 230.0000,1,   1,   1,   1,0.98193, -28.0693, 1.06000, 0.92000, 1.06000, 0.92000
  169,'169         ', 138.0000,1,   1,   1,   1,0.98907, -27.5842, 1.06000, 0.92000, 1.06000, 0.92000
  170,'170         ', 138.0000,1,   1,   1,   1,0.94684, -14.0580, 1.06000, 0.92000, 1.06000, 0.92000
  171,'171         ', 138.0000,1,   1,   1,   1,0.95575, -13.5370, 1.06000, 0.92000, 1.06000, 0.92000
  172,'172         ', 138.0000,1,   1,   1,   1,0.97304, -10.3334, 1.06000, 0.92000, 1.06000, 0.92000
  173,'173         ', 138.0000,1,   1,   1,   1,0.96907,  -9.7528, 1.06000, 0.92000, 1.06000, 0.92000
  174,'174         ', 345.0000,1,   1,   1,   1,1.00799, -15.7341, 1.06000, 0.92000, 1.06000, 0.92000
  175,'175         ', 138.0000,2,   1,   1,   1,1.02000, -15.2504, 1.10000, 0.98000, 1.10000, 0.98000
  176,'176         ', 345.0000,2,   1,   1,   1,1.02000, -21.0572, 1.10000, 0.98000, 1.10000, 0.98000
  177,'177         ', 230.0000,1,   1,   1,   1,1.00862, -17.0769, 1.06000, 0.92000, 1.06000, 0.92000
  178,'178         ', 138.0000,1,   1,   1,   1,0.98833, -20.6811, 1.06000, 0.92000, 1.06000, 0.92000
  179,'179         ', 138.0000,1,   1,   1,   1,0.98727, -20.7530, 1.06000, 0.92000, 1.06000, 0.92000
  180,'180         ', 345.0000,1,   1,   1,   1,1.00794, -15.7931, 1.06000, 0.92000, 1.06000, 0.92000
  181,'181         ', 345.0000,1,   1,   1,   1,1.02612, -20.3494, 1.06000, 0.92000, 1.06000, 0.92000
  182,'182         ', 345.0000,1,   1,   1,   1,0.98121, -27.3601, 1.06000, 0.92000, 1.06000, 0.92000
  183,'183         ', 345.0000,1,   1,   1,   1,0.99793, -27.6224, 1.06000, 0.92000, 1.06000, 0.92000
  184,'184         ', 230.0000,1,   1,   1,   1,1.00936, -15.8359, 1.06000, 0.92000, 1.06000, 0.92000
  185,'185         ', 345.0000,1,   1,   1,   1,1.00464, -13.2478, 1.06000, 0.92000, 1.06000, 0.92000
  186,'186         ', 345.0000,1,   1,   1,   1,1.00199, -28.5416, 1.06000, 0.92000, 1.06000, 0.92000
  187,'187         ', 345.0000,1,   1,   1,   1,1.01686, -26.3152, 1.06000, 0.92000, 1.06000, 0.92000
  188,'188         ', 345.0000,1,   1,   1,   1,1.01465,  -4.5466, 1.06000, 0.92000, 1.06000, 0.92000
  189,'189         ', 345.0000,1,   1,   1,   1,1.01438,  -5.3114, 1.06000, 0.92000, 1.06000, 0.92000
  190,'190         ', 345.0000,1,   1,   1,   1,1.01146, -11.9561, 1.06000, 0.92000, 1.06000, 0.92000
  191,'191         ', 345.0000,1,   1,   1,   1,1.01496, -16.7232, 1.06000, 0.92000, 1.06000, 0.92000
  192,'192         ', 230.0000,1,   1,   1,   1,1.00685, -21.4895, 1.06000, 0.92000, 1.06000, 0.92000
  193,'193         ', 345.0000,1,   1,   1,   1,1.00969, -20.2037, 1.06000, 0.92000, 1.06000, 0.92000
  194,'194         ', 345.0000,1,   1,   1,   1,1.00534, -22.2117, 1.06000, 0.92000, 1.06000, 0.92000
  195,'195         ', 230.0000,1,   1,   1,   1,0.97598, -23.8872, 1.06000, 0.92000, 1.06000, 0.92000
  196,'196         ', 345.0000,1,   1,   1,   1,0.98062, -21.9729, 1.06000, 0.92000, 1.06000, 0.92000
  197,'197         ', 230.0000,1,   1,   1,   1,0.98134, -24.7315, 1.06000, 0.92000, 1.06000, 0.92000
  198,'198         ', 345.0000,1,   1,   1,   1,0.98018, -21.8690, 1.06000, 0.92000, 1.06000, 0.92000
  199,'199         ', 345.0000,1,   1,   1,   1,0.98339, -14.4130, 1.06000, 0.92000, 1.06000, 0.92000
  200,'200         ', 345.0000,1,   1,   1,   1,1.00929, -17.6564, 1.06000, 0.92000, 1.06000, 0.92000
...
0 / END OF BUS DATA, BEGIN LOAD DATA
    1,'1 ',1,   1,   1,     0.000,     0.000,     0.000,     0.000,     0.000,     0.000,   1,1
    2,'1 ',1,   1,   1,   105.784,    32.569,     0.000,     0.000,     0.000,     0.000,   1,1
    3,'1 ',1,   1,   1,     0.000,     0.000,     0.000,     0.000,     0.000,     0.000,   1,1
    4,'1 ',1,   1,   1,    81.146,    24.181,     0.000,     0.000,     0.000,     0.000,   1,1
    5,'1 ',1,   1,   1,    99.337,    32.746,     0.000,     0.000,     0.000,     0.000,   1,1
    6,'1 ',1,   1,   1,    91.744,    27.544,     0.000,     0.000,     0.000,     0.000,   1,1
    7,'1 ',1,   1,   1,   155.568,    49.968,     0.000,     0.000,     0.000,     0.000,   1,1
    8,'1 ',1,   1,   1,   120.687,    37.933,     0.000,     0.000,     0.000,     0.000,   1,1
    9,'1 ',1,   1,   1,     0.000,     0.000,     0.000,     0.000,     0.000,     0.000,   1,1
   10,'1 ',1,   1,   1,    91.805,    31.087,     0.000,     0.000,     0.000,     0.000,   1,1
   11,'1 ',1,   1,   1,     0.000,     0.000,     0.000,     0.000,     0.000,     0.000,   1,1
   12,'1 ',1,   1,   1,     2.740,     0.834,     0.000,     0.000,     0.000,     0.000,   1,1
   13,'1 ',1,   1,   1,     0.000,     0.000,     0.000,     0.000,     0.000,     0.000,   1,1
   14,'1 ',1,   1,   1,   117.838,    34.013,     0.000,     0.000,     0.000,     0.000,   1,1
   15,'1 ',1,   1,   1,   139.976,    41.770,     0.000,     0.000,     0.000,     0.000,   1,1
   16,'1 ',1,   1,   1,   154.687,    44.924,     0.000,     0.000,     0.000,     0.000,   1,1
   17,'1 ',1,   1,   1,    87.446,    29.459,     0.000,     0.000,     0.000,     0.000,   1,1
   18,'1 ',1,   1,   1,    98.543,    29.234,     0.000,     0.000,     0.000,     0.000,   1,1
   19,'1 ',1,   1,   1,   101.907,    33.621,     0.000,     0.000,     0.000,     0.000,   1,1
   20,'1 ',1,   1,   1,   100.834,    31.068,     0.000,     0.000,     0.000,     0.000,   1,1
   21,'1 ',1,   1,   1,   138.525,    38.628,     0.000,     0.000,     0.000,     0.000,   1,1
   22,'1 ',1,   1,   1,   126.599,    35.955,     0.000,     0.000,     0.000,     0.000,   1,1
   23,'1 ',1,   1,   1,    96.750,    30.447,     0.000,     0.000,     0.000,     0.000,   1,1
   24,'1 ',1,   1,   1,   117.304,    37.778,     0.000,     0.000,     0.000,     0.000,   1,1
   25,'1 ',1,   1,   1,    73.098,    24.586,     0.000,     0.000,     0.000,     0.000,   1,1
   26,'1 ',1,   1,   1,    89.282,    24.237,     0.000,     0.000,     0.000,     0.000,   1,1
   27,'1 ',1,   1,   1,    96.678,    32.762,     0.000,     0.000,     0.000,     0.000,   1,1
   28,'1 ',1,   1,   1,   133.721,    38.688,     0.000,     0.000,     0.000,     0.000,   1,1
   29,'1 ',1,   1,   1,    84.838,    30.598,     0.000,     0.000,     0.000,     0.000,   1,1
   30,'1 ',1,   1,   1,     0.000,     0.000,     0.000,     0.000,     0.000,     0.000,   1,1
   31,'1 ',1,   1,   1,     0.000,     0.000,     0.000,     0.000,     0.000,     0.000,   1,1
   32,'1 ',1,   1,   1,     0.000,     0.000,     0.000,     0.000,     0.000,     0.000,   1,1
   33,'1 ',1,   1,   1,   127.802,    30.723,     0.000,     0.000,     0.000,     0.000,   1,1
   34,'1 ',1,   1,   1,    83.582,    26.650,     0.000,     0.000,     0.000,     0.000,   1,1
   35,'1 ',1,   1,   1,     0.000,     0.000,     0.000,     0.000,     0.000,     0.000,   1,1
   36,'1 ',1,   1,   1,     0.000,     0.000,     0.000,     0.000,     0.000,     0.000,   1,1
   37,'1 ',1,   1,   1,     0.000,     0.000,     0.000,     0.000,     0.000,     0.000,   1,1
   38,'1 ',1,   1,   1,     0.000,     0.000,     0.000,     0.000,     0.000,     0.000,   1,1
   39,'1 ',1,   1,   1,    85.106,    28.517,     0.000,     0.000,     0.000,     0.000,   1,1
   40,'1 ',1,   1,   1,    85.320,    26.272,     0.000,     0.000,     0.000,     0.000,   1,1
   41,'1 ',1,   1,   1,   109.100,    31.131,     0.000,     0.000,     0.000,     0.000,   1,1
   42,'1 ',1,   1,   1,   120.422,    31.571,     0.000,     0.000,     0.000,     0.000,   1,1
   43,'1 ',1,   1,   1,   112.890,    38.686,     0.000,     0.000,     0.000,     0.000,   1,1
   44,'1 ',1,   1,   1,    86.262,    30.396,     0.000,     0.000,     0.000,     0.000,   1,1
   45,'1 ',1,   1,   1,   121.022,    34.166,     0.000,     0.000,     0.000,     0.000,   1,1
   46,'1 ',1,   1,   1,   108.540,    36.423,     0.000,     0.000,     0.000,     0.000,   1,1
   47,'1 ',1,   1,   1,    99.269,    34.812,     0.000,     0.000,     0.000,     0.000,   1,1
   48,'1 ',1,   1,   1,   117.498,    38.681,     0.000,     0.000,     0.000,     0.000,   1,1
   49,'1 ',1,   1,   1,    78.999,    30.183,     0.000,     0.000,     0.000,     0.000,   1,1
   50,'1 ',1,   1,   1,   112.827,    39.049,     0.000,     0.000,     0.000,     0.000,   1,1
   51,'1 ',1,   1,   1,    99.518,    32.327,     0.000,     0.000,     0.000,     0.000,   1,1
   52,'1 ',1,   1,   1,   124.233,    34.698,     0.000,     0.000,     0.000,     0.000,   1,1
   53,'1 ',1,   1,   1,   177.170,    57.136,     0.000,     0.000,     0.000,     0.000,   1,1
   54,'1 ',1,   1,   1,    87.820,    35.428,     0.000,     0.000,     0.000,     0.000,   1,1
   55,'1 ',1,   1,   1,   118.558,    41.264,     0.000,     0.000,     0.000,     0.000,   1,1
   56,'1 ',1,   1,   1,   127.033,    38.647,     0.000,     0.000,     0.000,     0.000,   1,1
   57,'1 ',1,   1,   1,    75.261,    28.029,     0.000,     0.000,     0.000,     0.000,   1,1
   58,'1 ',1,   1,   1,   150.354,    41.290,     0.000,     0.000,     0.000,     0.000,   1,1
   59,'1 ',1,   1,   1,    96.359,    31.774,     0.000,     0.000,     0.000,     0.000,   1,1
   60,'1 ',1,   1,   1,   107.557,    37.389,     0.000,     0.000,     0.000,     0.000,   1,1
   61,'1 ',1,   1,   1,   126.748,    36.043,     0.000,     0.000,     0.000,     0.000,   1,1
   62,'1 ',1,   1,   1,   117.014,    33.092,     0.000,     0.000,     0.000,     0.000,   1,1
   63,'1 ',1,   1,   1,    93.057,    35.220,     0.000,     0.000,     0.000,     0.000,   1,1
   64,'1 ',1,   1,   1,   189.925,    60.081,     0.000,     0.000,     0.000,     0.000,   1,1
   65,'1 ',1,   1,   1,    81.696,    30.660,     0.000,     0.000,     0.000,     0.000,   1,1
   66,'1 ',1,   1,   1,    94.048,    36.082,     0.000,     0.000,     0.000,     0.000,   1,1
   67,'1 ',1,   1,   1,   106.956,    30.794,     0.000,     0.000,     0.000,     0.000,   1,1
   68,'1 ',1,   1,   1,   127.760,    39.841,     0.000,     0.000,     0.000,     0.000,   1,1
   69,'1 ',1,   1,   1,    76.173,    27.848,     0.000,     0.000,     0.000,     0.000,   1,1
   70,'1 ',1,   1,   1,   101.740,    32.670,     0.000,     0.000,     0.000,     0.000,   1,1
   71,'1 ',1,   1,   1,    82.836,    28.465,     0.000,     0.000,     0.000,     0.000,   1,1
   72,'1 ',1,   1,   1,    74.279,    27.233,     0.000,     0.000,     0.000,     0.000,   1,1
   73,'1 ',1,   1,   1,    86.623,    28.569,     0.000,     0.000,     0.000,     0.000,   1,1
   74,'1 ',1,   1,   1,    95.182,    32.720,     0.000,     0.000,     0.000,     0.000,   1,1
   75,'1 ',1,   1,   1,    99.720,    33.318,     0.000,     0.000,     0.000,     0.000,   1,1
   76,'1 ',1,   1,   1,   125.121,    30.412,     0.000,     0.000,     0.000,     0.000,   1,1
   77,'1 ',1,   1,   1,    85.256,    24.616,     0.000,     0.000,     0.000,     0.000,   1,1
   78,'1 ',1,   1,   1,   103.578,    29.525,     0.000,     0.000,     0.000,     0.000,   1,1
   79,'1 ',1,   1,   1,   135.003,    45.410,     0.000,     0.000,     0.000,     0.000,   1,1
   80,'1 ',1,   1,   1,   109.521,    32.626,     0.000,     0.000,     0.000,     0.000,   1,1
   81,'1 ',1,   1,   1,   117.515,    32.341,     0.000,     0.000,     0.000,     0.000,   1,1
   82,'1 ',1,   1,   1,    84.651,    25.176,     0.000,     0.000,     0.000,     0.000,   1,1
   83,'1 ',1,   1,   1,    88.852,    30.446,     0.000,     0.000,     0.000,     0.000,   1,1
   84,'1 ',1,   1,   1,    69.863,    25.721,     0.000,     0.000,     0.000,     0.000,   1,1
   85,'1 ',1,   1,   1,    76.482,    28.814,     0.000,     0.000,     0.000,     0.000,   1,1
   86,'1 ',1,   1,   1,   112.677,    33.791,     0.000,     0.000,     0.000,     0.000,   1,1
   87,'1 ',1,   1,   1,   126.859,    33.230,     0.000,     0.000,     0.000,     0.000,   1,1
   88,'1 ',1,   1,   1,   103.237,    34.772,     0.000,     0.000,     0.000,     0.000,   1,1
   89,'1 ',1,   1,   1,    82.949,    30.558,     0.000,     0.000,     0.000,     0.000,   1,1
   90,'1 ',1,   1,   1,    83.284,    29.698,     0.000,     0.000,     0.000,     0.000,   1,1
   91,'1 ',1,   1,   1,    96.256,    25.479,     0.000,     0.000,     0.000,     0.000,   1,1
   92,'1 ',1,   1,   1,    90.887,    30.104,     0.000,     0.000,     0.000,     0.000,   1,1
   93,'1 ',1,   1,   1,   102.565,    29.649,     0.000,     0.000,     0.000,     0.000,   1,1
   94,'1 ',1,   1,   1,   122.839,    37.181,     0.000,     0.000,     0.000,     0.000,   1,1
   95,'1 ',1,   1,   1,   113.832,    30.563,     0.000,     0.000,     0.000,     0.000,   1,1
   96,'1 ',1,   1,   1,   126.682,    37.979,     0.000,     0.000,     0.000,     0.000,   1,1
   97,'1 ',1,   1,   1,   124.844,    32.477,     0.000,     0.000,     0.000,     0.000,   1,1
   98,'1 ',1,   1,   1,   131.533,    32.700,     0.000,     0.000,     0.000,     0.000,   1,1
   99,'1 ',1,   1,   1,   124.976,    34.254,     0.000,     0.000,     0.000,     0.000,   1,1
  100,'1 ',1,   1,   1,   102.225,    29.880,     0.000,     0.000,     0.000,     0.000,   1,1
  101,'1 ',1,   1,   1,    96.349,    32.050,     0.000,     0.000,     0.000,     0.000,   1,1
  102,'1 ',1,   1,   1,    68.567,    26.292,     0.000,     0.000,     0.000,     0.000,   1,1
  103,'1 ',1,   1,   1,   145.749,    49.500,     0.000,     0.000,     0.000,     0.000,   1,1
  104,'1 ',1,   1,   1,   107.497,    32.734,     0.000,     0.000,     0.000,     0.000,   1,1
  105,'1 ',1,   1,   1,    83.835,    23.658,     0.000,     0.000,     0.000,     0.000,   1,1
  106,'1 ',1,   1,   1,    84.991,    28.720,     0.000,     0.000,     0.000,     0.000,   1,1
  107,'1 ',1,   1,   1,    95.886,    24.964,     0.000,     0.000,     0.000,     0.000,   1,1
  108,'1 ',1,   1,   1,   147.565,    42.155,     0.000,     0.000,     0.000,     0.000,   1,1
  109,'1 ',1,   1,   1,   117.304,    38.796,     0.000,     0.000,     0.000,     0.000,   1,1
  110,'1 ',1,   1,   1,    68.803,    21.817,     0.000,     0.000,     0.000,     0.000,   1,1
  111,'1 ',1,   1,   1,   111.952,    36.807,     0.000,     0.000,     0.000,     0.000,   1,1
  112,'1 ',1,   1,   1,   145.362,    39.099,     0.000,     0.000,     0.000,     0.000,   1,1
  113,'1 ',1,   1,   1,    68.059,    22.267,     0.000,     0.000,     0.000,     0.000,   1,1
  114,'1 ',1,   1,   1,    70.351,    27.457,     0.000,     0.000,     0.000,     0.000,   1,1
  115,'1 ',1,   1,   1,    77.602,    25.691,     0.000,     0.000,     0.000,     0.000,   1,1
  116,'1 ',1,   1,   1,   130.802,    34.216,     0.000,     0.000,     0.000,     0.000,   1,1
  117,'1 ',1,   1,   1,   103.758,    31.214,     0.000,     0.000,     0.000,     0.000,   1,1
  118,'1 ',1,   1,   1,    69.339,    25.885,     0.000,     0.000,     0.000,     0.000,   1,1
  119,'1 ',1,   1,   1,   125.525,    37.260,     0.000,     0.000,     0.000,     0.000,   1,1
  120,'1 ',1,   1,   1,    83.731,    27.959,     0.000,     0.000,     0.000,     0.000,   1,1
  121,'1 ',1,   1,   1,    98.034,    31.028,     0.000,     0.000,     0.000,     0.000,   1,1
  122,'1 ',1,   1,   1,    83.311,    26.560,     0.000,     0.000,     0.000,     0.000,   1,1
  123,'1 ',1,   1,   1,   115.587,    32.541,     0.000,     0.000,     0.000,     0.000,   1,1
  124,'1 ',1,   1,   1,   117.835,    33.018,     0.000,     0.000,     0.000,     0.000,   1,1
  125,'1 ',1,   1,   1,   122.098,    34.563,     0.000,     0.000,     0.000,     0.000,   1,1
  126,'1 ',1,   1,   1,   104.035,    27.626,     0.000,     0.000,     0.000,     0.000,   1,1
  127,'1 ',1,   1,   1,   118.524,    31.700,     0.000,     0.000,     0.000,     0.000,   1,1
  128,'1 ',1,   1,   1,   127.454,    37.783,     0.000,     0.000,     0.000,     0.000,   1,1
  129,'1 ',1,   1,   1,   100.955,    34.051,     0.000,     0.000,     0.000,     0.000,   1,1
  130,'1 ',1,   1,   1,   106.381,    34.728,     0.000,     0.000,     0.000,     0.000,   1,1
  131,'1 ',1,   1,   1,   138.024,    36.649,     0.000,     0.000,     0.000,     0.000,   1,1
  132,'1 ',1,   1,   1,   129.917,    32.705,     0.000,     0.000,     0.000,     0.000,   1,1
  133,'1 ',1,   1,   1,    88.716,    26.137,     0.000,     0.000,     0.000,     0.000,   1,1
  134,'1 ',1,   1,   1,   102.892,    28.056,     0.000,     0.000,     0.000,     0.000,   1,1
  135,'1 ',1,   1,   1,    80.684,    26.340,     0.000,     0.000,     0.000,     0.000,   1,1
  136,'1 ',1,   1,   1,    95.989,    28.474,     0.000,     0.000,     0.000,     0.000,   1,1
  137,'1 ',1,   1,   1,    80.057,    24.710,     0.000,     0.000,     0.000,     0.000,   1,1
  138,'1 ',1,   1,   1,   124.540,    34.883,     0.000,     0.000,     0.000,     0.000,   1,1
  139,'1 ',1,   1,   1,   110.684,    31.168,     0.000,     0.000,     0.000,     0.000,   1,1
  140,'1 ',1,   1,   1,   138.525,    32.293,     0.000,     0.000,     0.000,     0.000,   1,1
  141,'1 ',1,   1,   1,   127.480,    37.152,     0.000,     0.000,     0.000,     0.000,   1,1
  142,'1 ',1,   1,   1,    90.044,    29.292,     0.000,     0.000,     0.000,     0.000,   1,1
  143,'1 ',1,   1,   1,   122.080,    37.503,     0.000,     0.000,     0.000,     0.000,   1,1
  144,'1 ',1,   1,   1,   141.362,    36.570,     0.000,     0.000,     0.000,     0.000,   1,1
  145,'1 ',1,   1,   1,   113.690,    35.116,     0.000,     0.000,     0.000,     0.000,   1,1
  146,'1 ',1,   1,   1,   122.123,    31.094,     0.000,     0.000,     0.000,     0.000,   1,1
  147,'1 ',1,   1,   1,    84.078,    27.948,     0.000,     0.000,     0.000,     0.000,   1,1
  148,'1 ',1,   1,   1,    93.166,    30.131,     0.000,     0.000,     0.000,     0.000,   1,1
  149,'1 ',1,   1,   1,   146.622,    40.778,     0.000,     0.000,     0.000,     0.000,   1,1
  150,'1 ',1,   1,   1,   109.294,    33.572,     0.000,     0.000,     0.000,     0.000,   1,1
  151,'1 ',1,   1,   1,    95.129,    32.910,     0.000,     0.000,     0.000,     0.000,   1,1
  152,'1 ',1,   1,   1,    79.434,    28.566,     0.000,     0.000,     0.000,     0.000,   1,1
  153,'1 ',1,   1,   1,    90.925,    33.947,     0.000,     0.000,     0.000,     0.000,   1,1
  154,'1 ',1,   1,   1,   108.705,    35.359,     0.000,     0.000,     0.000,     0.000,   1,1
  155,'1 ',1,   1,   1,    99.847,    32.388,     0.000,     0.000,     0.000,     0.000,   1,1
  156,'1 ',1,   1,   1,   102.892,    31.674,     0.000,     0.000,     0.000,     0.000,   1,1
  157,'1 ',1,   1,   1,   101.879,    33.048,     0.000,     0.000,     0.000,     0.000,   1,1
  158,'1 ',1,   1,   1,   101.578,    31.528,     0.000,     0.000,     0.000,     0.000,   1,1
  159,'1 ',1,   1,   1,   104.243,    30.085,     0.000,     0.000,     0.000,     0.000,   1,1
  160,'1 ',1,   1,   1,   127.105,    38.413,     0.000,     0.000,     0.000,     0.000,   1,1
  161,'1 ',1,   1,   1,    71.669,    24.762,     0.000,     0.000,     0.000,     0.000,   1,1
  162,'1 ',1,   1,   1,    98.153,    30.628,     0.000,     0.000,     0.000,     0.000,   1,1
  163,'1 ',1,   1,   1,   118.859,    31.117,     0.000,     0.000,     0.000,     0.000,   1,1
  164,'1 ',1,   1,   1,    95.431,    31.219,     0.000,     0.000,     0.000,     0.000,   1,1
  165,'1 ',1,   1,   1,   100.314,    31.951,     0.000,     0.000,     0.000,     0.000,   1,1
  166,'1 ',1,   1,   1,    93.348,    27.350,     0.000,     0.000,     0.000,     0.000,   1,1
  167,'1 ',1,   1,   1,    93.253,    31.378,     0.000,     0.000,     0.000,     0.000,   1,1
  168,'1 ',1,   1,   1,    64.917,    23.040,     0.000,     0.000,     0.000,     0.000,   1,1
  169,'1 ',1,   1,   1,    95.833,    27.889,     0.000,     0.000,     0.000,     0.000,   1,1
  170,'1 ',1,   1,   1,   109.244,    29.946,     0.000,     0.000,     0.000,     0.000,   1,1
  171,'1 ',1,   1,   1,    96.650,    29.487,     0.000,     0.000,     0.000,     0.000,   1,1
  172,'1 ',1,   1,   1,   109.900,    34.694,     0.000,     0.000,     0.000,     0.000,   1,1
  173,'1 ',1,   1,   1,    99.207,    33.321,     0.000,     0.000,     0.000,     0.000,   1,1
  174,'1 ',1,   1,   1,   116.952,    34.883,     0.000,     0.000,     0.000,     0.000,   1,1
  175,'1 ',1,   1,   1,    94.574,    32.306,     0.000,     0.000,     0.000,     0.000,   1,1
  176,'1 ',1,   1,   1,   114.953,    35.340,     0.000,     0.000,     0.000,     0.000,   1,1
  177,'1 ',1,   1,   1,   159.113,    50.582,     0.000,     0.000,     0.000,     0.000,   1,1
  178,'1 ',1,   1,   1,    87.352,    26.151,     0.000,     0.000,     0.000,     0.000,   1,1
  179,'1 ',1,   1,   1,     8.040,     2.593,     0.000,     0.000,     0.000,     0.000,   1,1
  180,'1 ',1,   1,   1,    11.710,     3.294,     0.000,     0.000,     0.000,     0.000,   1,1
  181,'1 ',1,   1,   1,     0.000,     0.000,     0.000,     0.000,     0.000,     0.000,   1,1
  182,'1 ',1,   1,   1,     0.000,     0.000,     0.000,     0.000,     0.000,     0.000,   1,1
  183,'1 ',1,   1,   1,     0.000,     0.000,     0.000,     0.000,     0.000,     0.000,   1,1
  184,'1 ',1,   1,   1,     0.000,     0.000,     0.000,     0.000,     0.000,     0.000,   1,1
  185,'1 ',1,   1,   1,     0.000,     0.000,     0.000,     0.000,     0.000,     0.000,   1,1
  186,'1 ',1,   1,   1,     0.000,     0.000,     0.000,     0.000,     0.000,     0.000,   1,1
  187,'1 ',1,   1,   1,     0.000,     0.000,     0.000,     0.000,     0.000,     0.000,   1,1
  188,'1 ',1,   1,   1,     0.000,     0.000,     0.000,     0.000,     0.000,     0.000,   1,1
  189,'1 ',1,   1,   1,     0.000,     0.000,     0.000,     0.000,     0.000,     0.000,   1,1
  190,'1 ',1,   1,   1,     0.000,     0.000,     0.000,     0.000,     0.000,     0.000,   1,1
  191,'1 ',1,   1,   1,     0.000,     0.000,     0.000,     0.000,     0.000,     0.000,   1,1
  192,'1 ',1,   1,   1,     0.000,     0.000,     0.000,     0.000,     0.000,     0.000,   1,1
  193,'1 ',1,   1,   1,     0.000,     0.000,     0.000,     0.000,     0.000,     0.000,   1,1
  194,'1 ',1,   1,   1,     0.000,     0.000,     0.000,     0.000,     0.000,     0.000,   1,1
  195,'1 ',1,   1,   1,     0.000,     0.000,     0.000,     0.000,     0.000,     0.000,   1,1
  196,'1 ',1,   1,   1,     0.000,     0.000,     0.000,     0.000,     0.000,     0.000,   1,1
  197,'1 ',1,   1,   1,     0.000,     0.000,     0.000,     0.000,     0.000,     0.000,   1,1
  198,'1 ',1,   1,   1,     0.000,     0.000,     0.000,     0.000,     0.000,     0.000,   1,1
  199,'1 ',1,   1,   1,     0.000,     0.000,     0.000,     0.000,     0.000,     0.000,   1,1
  200,'1 ',1,   1,   1,     0.000,     0.000,     0.000,     0.000,     0.000,     0.000,   1,1
...
0 / END OF LOAD DATA, BEGIN FIXED SHUNT DATA
0 / END OF FIXED SHUNT DATA, BEGIN GENERATOR DATA
    1,'1 ',     4.463,  -103.000,   103.000,  -103.000,1.02000,    0,   100.000,   0.00000,   1.00000,   0.00000,   0.00000,1.00000,1,  100.0,   338.000,     3.000,   1,1.0000,   0,1.0000,   0,1.0000,   0,1.0000,1, 1.0000
    3,'1 ',   443.298,    20.957,   392.000,  -209.000,1.02000,    0,   100.000,   0.00000,   1.00000,   0.00000,   0.00000,1.00000,1,  100.0,   686.000,   298.000,   1,1.0000,   0,1.0000,   0,1.0000,   0,1.0000,0, 1.0000
    7,'1 ',   206.773,   235.173,   385.000,  -205.000,1.02000,    0,   100.000,   0.00000,   1.00000,   0.00000,   0.00000,1.00000,1,  100.0,   674.000,   139.000,   1,1.0000,   0,1.0000,   0,1.0000,   0,1.0000,0, 1.0000
    8,'1 ',   281.152,   189.783,   349.000,  -186.000,1.02000,    0,   100.000,   0.00000,   1.00000,   0.00000,   0.00000,1.00000,1,  100.0,   611.000,   189.000,   1,1.0000,   0,1.0000,   0,1.0000,   0,1.0000,0, 1.0000
   10,'1 ',  2539.609,   283.403,  1298.000,  -692.000,1.02000,    0,   100.000,   0.00000,   1.00000,   0.00000,   0.00000,1.00000,1,  100.0,  2271.000,  1406.000,   1,1.0000,   0,1.0000,   0,1.0000,   0,1.0000,0, 1.0000
   24,'1 ',   428.422,   190.666,   309.000,  -165.000,1.02000,    0,   100.000,   0.00000,   1.00000,   0.00000,   0.00000,1.00000,1,  100.0,   541.000,   288.000,   1,1.0000,   0,1.0000,   0,1.0000,   0,1.0000,0, 1.0000
   26,'1 ',   178.509,    41.311,   171.000,   -91.000,1.02000,    0,   100.000,   0.00000,   1.00000,   0.00000,   0.00000,1.00000,1,  100.0,   300.000,   120.000,   1,1.0000,   0,1.0000,   0,1.0000,   0,1.0000,0, 1.0000
   28,'1 ',   321.317,    88.131,   338.000,  -180.000,1.02000,    0,   100.000,   0.00000,   1.00000,   0.00000,   0.00000,1.00000,1,  100.0,   592.000,   216.000,   1,1.0000,   0,1.0000,   0,1.0000,   0,1.0000,0, 1.0000
   30,'1 ',   185.947,   -14.978,   150.000,   -80.000,1.02000,    0,   100.000,   0.00000,   1.00000,   0.00000,   0.00000,1.00000,1,  100.0,   263.000,   125.000,   1,1.0000,   0,1.0000,   0,1.0000,   0,1.0000,0, 1.0000
   31,'1 ',   358.506,    64.801,   457.000,  -244.000,1.02000,    0,   100.000,   0.00000,   1.00000,   0.00000,   0.00000,1.00000,1,  100.0,   800.000,   241.000,   1,1.0000,   0,1.0000,   0,1.0000,   0,1.0000,0, 1.0000
   32,'1 ',   242.475,     5.653,   390.000,  -208.000,1.02000,    0,   100.000,   0.00000,   1.00000,   0.00000,   0.00000,1.00000,1,  100.0,   683.000,   163.000,   1,1.0000,   0,1.0000,   0,1.0000,   0,1.0000,0, 1.0000
   33,'1 ',   563.792,   254.015,   379.000,  -202.000,1.02000,    0,   100.000,   0.00000,   1.00000,   0.00000,   0.00000,1.00000,1,  100.0,   664.000,   379.000,   1,1.0000,   0,1.0000,   0,1.0000,   0,1.0000,0, 1.0000
   34,'1 ',   438.835,   138.990,   707.000,  -377.000,1.02000,    0,   100.000,   0.00000,   1.00000,   0.00000,   0.00000,1.00000,1,  100.0,  1237.000,   295.000,   1,1.0000,   0,1.0000,   0,1.0000,   0,1.0000,0, 1.0000
   35,'1 ',  1371.789,   357.357,   792.000,  -422.000,1.02000,    0,   100.000,   0.00000,   1.00000,   0.00000,   0.00000,1.00000,1,  100.0,  1386.000,   924.000,   1,1.0000,   0,1.0000,   0,1.0000,   0,1.0000,0, 1.0000
   36,'1 ',   208.261,   103.078,   336.000,  -179.000,1.02000,    0,   100.000,   0.00000,   1.00000,   0.00000,   0.00000,1.00000,1,  100.0,   588.000,   140.000,   1,1.0000,   0,1.0000,   0,1.0000,   0,1.0000,0, 1.0000
   37,'1 ',   148.758,    71.961,   324.000,  -173.000,1.02000,    0,   100.000,   0.00000,   1.00000,   0.00000,   0.00000,1.00000,1,  100.0,   567.000,   100.000,   1,1.0000,   0,1.0000,   0,1.0000,   0,1.0000,0, 1.0000
   38,'1 ',   309.416,    30.814,   498.000,  -266.000,1.02000,    0,   100.000,   0.00000,   1.00000,   0.00000,   0.00000,1.00000,1,  100.0,   872.000,   208.000,   1,1.0000,   0,1.0000,   0,1.0000,   0,1.0000,0, 1.0000
   49,'1 ',   476.025,   156.101,   347.000,  -185.000,1.02000,    0,   100.000,   0.00000,   1.00000,   0.00000,   0.00000,1.00000,1,  100.0,   607.000,   320.000,   1,1.0000,   0,1.0000,   0,1.0000,   0,1.0000,0, 1.0000
   52,'1 ',   240.988,   268.066,   938.000,  -500.000,1.02000,    0,   100.000,   0.00000,   1.00000,   0.00000,   0.00000,1.00000,1,  100.0,  1642.000,   162.000,   1,1.0000,   0,1.0000,   0,1.0000,   0,1.0000,0, 1.0000
   54,'1 ',   309.416,    21.764,   312.000,  -166.000,1.02000,    0,   100.000,   0.00000,   1.00000,   0.00000,   0.00000,1.00000,1,  100.0,   546.000,   208.000,   1,1.0000,   0,1.0000,   0,1.0000,   0,1.0000,0, 1.0000
   56,'1 ',   618.832,   258.005,   416.000,  -222.000,1.02000,    0,   100.000,   0.00000,   1.00000,   0.00000,   0.00000,1.00000,1,  100.0,   728.000,   416.000,   1,1.0000,   0,1.0000,   0,1.0000,   0,1.0000,0, 1.0000
   69,'1 ',   221.649,   177.659,   297.000,  -158.000,1.02000,    0,   100.000,   0.00000,   1.00000,   0.00000,   0.00000,1.00000,1,  100.0,   520.000,   149.000,   1,1.0000,   0,1.0000,   0,1.0000,   0,1.0000,0, 1.0000
   72,'1 ',   126.444,   150.000,   150.000,   -80.000,1.02000,    0,   100.000,   0.00000,   1.00000,   0.00000,   0.00000,1.00000,1,  100.0,   263.000,    85.000,   1,1.0000,   0,1.0000,   0,1.0000,   0,1.0000,0, 1.0000
   76,'1 ',   647.096,   278.456,   504.000,  -269.000,1.02000,    0,   100.000,   0.00000,   1.00000,   0.00000,   0.00000,1.00000,1,  100.0,   882.000,   435.000,   1,1.0000,   0,1.0000,   0,1.0000,   0,1.0000,0, 1.0000
   78,'1 ',   193.385,   -61.242,   165.000,   -88.000,1.02000,    0,   100.000,   0.00000,   1.00000,   0.00000,   0.00000,1.00000,1,  100.0,   288.000,   130.000,   1,1.0000,   0,1.0000,   0,1.0000,   0,1.0000,0, 1.0000
   80,'1 ',   168.096,   -58.574,   330.000,  -176.000,1.02000,    0,   100.000,   0.00000,   1.00000,   0.00000,   0.00000,1.00000,1,  100.0,   578.000,   113.000,   1,1.0000,   0,1.0000,   0,1.0000,   0,1.0000,0, 1.0000
   82,'1 ',   261.814,   -31.116,   179.000,   -95.000,1.02000,    0,   100.000,   0.00000,   1.00000,   0.00000,   0.00000,1.00000,1,  100.0,   313.000,   176.000,   1,1.0000,   0,1.0000,   0,1.0000,   0,1.0000,0, 1.0000
   84,'1 ',   251.401,    62.684,   508.000,  -271.000,1.02000,    0,   100.000,   0.00000,   1.00000,   0.00000,   0.00000,1.00000,1,  100.0,   888.000,   169.000,   1,1.0000,   0,1.0000,   0,1.0000,   0,1.0000,0, 1.0000
  103,'1 ',   309.416,   267.777,   523.000,  -279.000,1.02000,    0,   100.000,   0.00000,   1.00000,   0.00000,   0.00000,1.00000,1,  100.0,   916.000,   208.000,   1,1.0000,   0,1.0000,   0,1.0000,   0,1.0000,0, 1.0000
  120,'1 ',   239.500,   434.383,   483.000,  -258.000,1.02000,    0,   100.000,   0.00000,   1.00000,   0.00000,   0.00000,1.00000,1,  100.0,   845.000,   161.000,   1,1.0000,   0,1.0000,   0,1.0000,   0,1.0000,0, 1.0000
  128,'1 ',   267.764,    37.041,   216.000,  -115.000,1.02000,    0,   100.000,   0.00000,   1.00000,   0.00000,   0.00000,1.00000,1,  100.0,   378.000,   180.000,   1,1.0000,   0,1.0000,   0,1.0000,   0,1.0000,0, 1.0000
  130,'1 ',   171.071,   119.833,   153.000,   -81.000,1.02000,    0,   100.000,   0.00000,   1.00000,   0.00000,   0.00000,1.00000,1,  100.0,   267.000,   115.000,   1,1.0000,   0,1.0000,   0,1.0000,   0,1.0000,0, 1.0000
  141,'1 ',  1304.605,   341.630,   967.000,  -515.000,1.02000,    0,   100.000,   0.00000,   1.00000,   0.00000,   0.00000,1.00000,1,  100.0,  1691.000,   877.000,   1,1.0000,   0,1.0000,   0,1.0000,   0,1.0000,0, 1.0000
  143,'1 ',   230.574,   138.753,   173.000,   -92.000,1.02000,    0,   100.000,   0.00000,   1.00000,   0.00000,   0.00000,1.00000,1,  100.0,   303.000,   155.000,   1,1.0000,   0,1.0000,   0,1.0000,   0,1.0000,0, 1.0000
  146,'1 ',   446.273,   347.000,   347.000,  -185.000,1.02000,    0,   100.000,   0.00000,   1.00000,   0.00000,   0.00000,1.00000,1,  100.0,   607.000,   300.000,   1,1.0000,   0,1.0000,   0,1.0000,   0,1.0000,0, 1.0000
  149,'1 ',   271.191,    75.036,   157.000,   -83.000,1.02000,    0,   100.000,   0.00000,   1.00000,   0.00000,   0.00000,1.00000,1,  100.0,   274.000,   186.000,   1,1.0000,   0,1.0000,   0,1.0000,   0,1.0000,0, 1.0000
  157,'1 ',   428.422,    88.918,   298.000,  -159.000,1.02000,    0,   100.000,   0.00000,   1.00000,   0.00000,   0.00000,1.00000,1,  100.0,   521.000,   288.000,   1,1.0000,   0,1.0000,   0,1.0000,   0,1.0000,0, 1.0000
  162,'1 ',   342.143,   132.032,   363.000,  -194.000,1.02000,    0,   100.000,   0.00000,   1.00000,   0.00000,   0.00000,1.00000,1,  100.0,   636.000,   230.000,   1,1.0000,   0,1.0000,   0,1.0000,   0,1.0000,0, 1.0000
  165,'1 ',  1163.285,   107.327,   745.000,  -397.000,1.02000,    0,   100.000,   0.00000,   1.00000,   0.00000,   0.00000,1.00000,1,  100.0,  1304.000,   782.000,   1,1.0000,   0,1.0000,   0,1.0000,   0,1.0000,0, 1.0000
  166,'1 ',   412.059,   155.101,   474.000,  -253.000,1.02000,    0,   100.000,   0.00000,   1.00000,   0.00000,   0.00000,1.00000,1,  100.0,   830.000,   277.000,   1,1.0000,   0,1.0000,   0,1.0000,   0,1.0000,0, 1.0000
  175,'1 ',   310.904,    71.996,   358.000,  -191.000,1.02000,    0,   100.000,   0.00000,   1.00000,   0.00000,   0.00000,1.00000,1,  100.0,   626.000,   209.000,   1,1.0000,   0,1.0000,   0,1.0000,   0,1.0000,0, 1.0000
  176,'1 ',   127.932,    33.804,   153.000,   -81.000,1.02000,    0,   100.000,   0.00000,   1.00000,   0.00000,   0.00000,1.00000,1,  100.0,   267.000,    86.000,   1,1.0000,   0,1.0000,   0,1.0000,   0,1.0000,0, 1.0000
0 / END OF GENERATOR DATA, BEGIN BRANCH DATA
    1,     2,'1 ', 0.00598, 0.12062,1.98515, 414.51, 414.51, 414.51,  0.00000,  0.00000,  0.00000,  0.00000,1,1, 239.2,   1,1.0000,   0,1.0000,   0,1.0000,   0,1.0000
    2,    39,'1 ', 0.00868, 0.06020,0.52937, 530.03, 530.03, 530.03,  0.00000,  0.00000,  0.00000,  0.00000,1,1,  86.8,   1,1.0000,   0,1.0000,   0,1.0000,   0,1.0000
    2,   139,'1 ', 0.00339, 0.02318,0.20974, 530.03, 530.03, 530.03,  0.00000,  0.00000,  0.00000,  0.00000,1,1,  33.9,   1,1.0000,   0,1.0000,   0,1.0000,   0,1.0000
    2,   181,'1 ', 0.00761, 0.05275,0.46393, 530.03, 530.03, 530.03,  0.00000,  0.00000,  0.00000,  0.00000,1,1,  76.1,   1,1.0000,   0,1.0000,   0,1.0000,   0,1.0000
    2,   201,'1 ', 0.00274, 0.01875,0.16965, 530.03, 530.03, 530.03,  0.00000,  0.00000,  0.00000,  0.00000,1,1,  27.4,   1,1.0000,   0,1.0000,   0,1.0000,   0,1.0000
    3,    18,'1 ', 0.00383, 0.15813,0.09685, 316.20, 316.20, 316.20,  0.00000,  0.00000,  0.00000,  0.00000,1,1,  60.3,   1,1.0000,   0,1.0000,   0,1.0000,   0,1.0000
    4,    75,'1 ', 0.01684, 0.03812,0.00951, 107.32, 107.32, 107.32,  0.00000,  0.00000,  0.00000,  0.00000,1,1,   9.2,   1,1.0000,   0,1.0000,   0,1.0000,   0,1.0000
    5,     8,'1 ', 0.00296, 0.03933,0.08406, 578.83, 578.83, 578.83,  0.00000,  0.00000,  0.00000,  0.00000,1,1,  27.9,   1,1.0000,   0,1.0000,   0,1.0000,   0,1.0000
    5,   184,'1 ', 0.04502, 0.11101,0.17939, 178.87, 178.87, 178.87,  0.00000,  0.00000,  0.00000,  0.00000,1,1,  68.6,   1,1.0000,   0,1.0000,   0,1.0000,   0,1.0000
    5,   207,'1 ', 0.00112, 0.01328,0.03027, 541.39, 541.39, 541.39,  0.00000,  0.00000,  0.00000,  0.00000,1,1,   9.7,   1,1.0000,   0,1.0000,   0,1.0000,   0,1.0000
    6,     7,'1 ', 0.06200, 0.14575,0.03365, 107.32, 107.32, 107.32,  0.00000,  0.00000,  0.00000,  0.00000,1,1,  34.0,   1,1.0000,   0,1.0000,   0,1.0000,   0,1.0000
    6,    70,'1 ', 0.03364, 0.07769,0.01859, 107.32, 107.32, 107.32,  0.00000,  0.00000,  0.00000,  0.00000,1,1,  18.5,   1,1.0000,   0,1.0000,   0,1.0000,   0,1.0000
    8,    54,'1 ', 0.00033, 0.00508,0.01216, 665.28, 665.28, 665.28,  0.00000,  0.00000,  0.00000,  0.00000,1,1,   3.8,   1,1.0000,   0,1.0000,   0,1.0000,   0,1.0000
  187,     9,'1 ', 0.00684, 0.04742,0.41703, 530.03, 530.03, 530.03,  0.00000,  0.00000,  0.00000,  0.00000,1,1,  68.4,   1,1.0000,   0,1.0000,   0,1.0000,   0,1.0000
   10,    11,'1 ', 0.00032, 0.00856,0.00495, 566.01, 566.01, 566.01,  0.00000,  0.00000,  0.00000,  0.00000,1,1,   3.2,   1,1.0000,   0,1.0000,   0,1.0000,   0,1.0000
   10,    70,'1 ', 0.00580, 0.06727,0.02063, 324.83, 324.83, 324.83,  0.00000,  0.00000,  0.00000,  0.00000,1,1,  18.1,   1,1.0000,   0,1.0000,   0,1.0000,   0,1.0000
   11,   173,'1 ', 0.01667, 0.12408,0.03486, 237.35, 237.35, 237.35,  0.00000,  0.00000,  0.00000,  0.00000,1,1,  31.9,   1,1.0000,   0,1.0000,   0,1.0000,   0,1.0000
  188,    13,'1 ', 0.00011, 0.00195,0.02003,1045.73,1045.73,1045.73,  0.00000,  0.00000,  0.00000,  0.00000,1,1,   3.0,   1,1.0000,   0,1.0000,   0,1.0000,   0,1.0000
   13,   190,'1 ', 0.00085, 0.01791,0.26779,1060.07,1060.07,1060.07,  0.00000,  0.00000,  0.00000,  0.00000,1,1,  33.9,   1,1.0000,   0,1.0000,   0,1.0000,   0,1.0000
   14,    15,'1 ', 0.03611, 0.08904,0.14388, 178.87, 178.87, 178.87,  0.00000,  0.00000,  0.00000,  0.00000,1,1,  55.0,   1,1.0000,   0,1.0000,   0,1.0000,   0,1.0000
   14,   177,'1 ', 0.01882, 0.06776,0.11459, 229.46, 229.46, 229.46,  0.00000,  0.00000,  0.00000,  0.00000,1,1,  42.5,   1,1.0000,   0,1.0000,   0,1.0000,   0,1.0000
   15,    61,'1 ', 0.00413, 0.02750,0.05200, 353.36, 353.36, 353.36,  0.00000,  0.00000,  0.00000,  0.00000,1,1,  18.4,   1,1.0000,   0,1.0000,   0,1.0000,   0,1.0000
  184,    15,'1 ', 0.00343, 0.04204,0.08894, 541.39, 541.39, 541.39,  0.00000,  0.00000,  0.00000,  0.00000,1,1,  29.7,   1,1.0000,   0,1.0000,   0,1.0000,   0,1.0000
   16,   149,'1 ', 0.01423, 0.04695,0.01231, 137.68, 137.68, 137.68,  0.00000,  0.00000,  0.00000,  0.00000,1,1,  11.6,   1,1.0000,   0,1.0000,   0,1.0000,   0,1.0000
   17,    18,'1 ', 0.05670, 0.19450,0.04709, 137.68, 137.68, 137.68,  0.00000,  0.00000,  0.00000,  0.00000,1,1,  46.1,   1,1.0000,   0,1.0000,   0,1.0000,   0,1.0000
   17,   145,'1 ', 0.04673, 0.10452,0.02669, 107.32, 107.32, 107.32,  0.00000,  0.00000,  0.00000,  0.00000,1,1,  25.6,   1,1.0000,   0,1.0000,   0,1.0000,   0,1.0000
   19,    96,'1 ', 0.05510, 0.12952,0.02990, 107.32, 107.32, 107.32,  0.00000,  0.00000,  0.00000,  0.00000,1,1,  30.2,   1,1.0000,   0,1.0000,   0,1.0000,   0,1.0000
   19,   105,'1 ', 0.00053, 0.01276,0.00724, 522.03, 522.03, 522.03,  0.00000,  0.00000,  0.00000,  0.00000,1,1,   4.7,   1,1.0000,   0,1.0000,   0,1.0000,   0,1.0000
   19,   110,'1 ', 0.00509, 0.02371,0.00609, 173.53, 173.53, 173.53,  0.00000,  0.00000,  0.00000,  0.00000,1,1,   5.8,   1,1.0000,   0,1.0000,   0,1.0000,   0,1.0000
   19,   118,'1 ', 0.00064, 0.01345,0.00755, 474.70, 474.70, 474.70,  0.00000,  0.00000,  0.00000,  0.00000,1,1,   4.9,   1,1.0000,   0,1.0000,   0,1.0000,   0,1.0000
   19,   175,'1 ', 0.05620, 0.25162,0.07017, 173.53, 173.53, 173.53,  0.00000,  0.00000,  0.00000,  0.00000,1,1,  64.5,   1,1.0000,   0,1.0000,   0,1.0000,   0,1.0000
   21,   129,'1 ', 0.00698, 0.03501,0.01005, 187.39, 187.39, 187.39,  0.00000,  0.00000,  0.00000,  0.00000,1,1,   9.1,   1,1.0000,   0,1.0000,   0,1.0000,   0,1.0000
   21,   130,'1 ', 0.00738, 0.06070,0.01884, 261.01, 261.01, 261.01,  0.00000,  0.00000,  0.00000,  0.00000,1,1,  16.4,   1,1.0000,   0,1.0000,   0,1.0000,   0,1.0000
   22,    23,'1 ', 0.01398, 0.03448,0.05572, 178.87, 178.87, 178.87,  0.00000,  0.00000,  0.00000,  0.00000,1,1,  21.3,   1,1.0000,   0,1.0000,   0,1.0000,   0,1.0000
   23,    24,'1 ', 0.04301, 0.10605,0.17137, 178.87, 178.87, 178.87,  0.00000,  0.00000,  0.00000,  0.00000,1,1,  65.6,   1,1.0000,   0,1.0000,   0,1.0000,   0,1.0000
   23,    90,'1 ', 0.00690, 0.02037,0.03648, 206.75, 206.75, 206.75,  0.00000,  0.00000,  0.00000,  0.00000,1,1,  13.2,   1,1.0000,   0,1.0000,   0,1.0000,   0,1.0000
   23,    91,'1 ', 0.01279, 0.05439,0.09557, 262.53, 262.53, 262.53,  0.00000,  0.00000,  0.00000,  0.00000,1,1,  35.1,   1,1.0000,   0,1.0000,   0,1.0000,   0,1.0000
   24,   177,'1 ', 0.00208, 0.01428,0.02528, 353.36, 353.36, 353.36,  0.00000,  0.00000,  0.00000,  0.00000,1,1,   9.2,   1,1.0000,   0,1.0000,   0,1.0000,   0,1.0000
   25,   133,'1 ', 0.00613, 0.04868,0.09258, 395.58, 395.58, 395.58,  0.00000,  0.00000,  0.00000,  0.00000,1,1,  32.6,   1,1.0000,   0,1.0000,   0,1.0000,   0,1.0000
   25,   168,'1 ', 0.01816, 0.04527,0.07160, 178.87, 178.87, 178.87,  0.00000,  0.00000,  0.00000,  0.00000,1,1,  27.7,   1,1.0000,   0,1.0000,   0,1.0000,   0,1.0000
   26,    42,'1 ', 0.00714, 0.04949,0.43522, 530.03, 530.03, 530.03,  0.00000,  0.00000,  0.00000,  0.00000,1,1,  71.4,   1,1.0000,   0,1.0000,   0,1.0000,   0,1.0000
   26,    43,'1 ', 0.00133, 0.00911,0.08245, 530.03, 530.03, 530.03,  0.00000,  0.00000,  0.00000,  0.00000,1,1,  13.3,   1,1.0000,   0,1.0000,   0,1.0000,   0,1.0000
   26,   202,'1 ', 0.01045, 0.07245,0.63716, 530.03, 530.03, 530.03,  0.00000,  0.00000,  0.00000,  0.00000,1,1, 104.5,   1,1.0000,   0,1.0000,   0,1.0000,   0,1.0000
   27,   160,'1 ', 0.02217, 0.05468,0.08835, 178.87, 178.87, 178.87,  0.00000,  0.00000,  0.00000,  0.00000,1,1,  33.8,   1,1.0000,   0,1.0000,   0,1.0000,   0,1.0000
   28,    77,'1 ', 0.06656, 0.15647,0.03612, 107.32, 107.32, 107.32,  0.00000,  0.00000,  0.00000,  0.00000,1,1,  36.5,   1,1.0000,   0,1.0000,   0,1.0000,   0,1.0000
   28,    88,'1 ', 0.00116, 0.01860,0.00608, 418.29, 418.29, 418.29,  0.00000,  0.00000,  0.00000,  0.00000,1,1,   5.1,   1,1.0000,   0,1.0000,   0,1.0000,   0,1.0000
   29,    84,'1 ', 0.00955, 0.09168,0.02681, 283.00, 283.00, 283.00,  0.00000,  0.00000,  0.00000,  0.00000,1,1,  24.0,   1,1.0000,   0,1.0000,   0,1.0000,   0,1.0000
   39,    43,'1 ', 0.00577, 0.04003,0.35199, 530.03, 530.03, 530.03,  0.00000,  0.00000,  0.00000,  0.00000,1,1,  57.7,   1,1.0000,   0,1.0000,   0,1.0000,   0,1.0000
   40,    43,'1 ', 0.00360, 0.02314,0.23770, 530.03, 530.03, 530.03,  0.00000,  0.00000,  0.00000,  0.00000,1,1,  36.0,   1,1.0000,   0,1.0000,   0,1.0000,   0,1.0000
  202,    41,'1 ', 0.00271, 0.01880,0.16536, 530.03, 530.03, 530.03,  0.00000,  0.00000,  0.00000,  0.00000,1,1,  27.1,   1,1.0000,   0,1.0000,   0,1.0000,   0,1.0000
   42,   167,'1 ', 0.00687, 0.04934,0.40438, 530.03, 530.03, 530.03,  0.00000,  0.00000,  0.00000,  0.00000,1,1,  68.7,   1,1.0000,   0,1.0000,   0,1.0000,   0,1.0000
   44,    55,'1 ', 0.00742, 0.02703,0.04470, 229.46, 229.46, 229.46,  0.00000,  0.00000,  0.00000,  0.00000,1,1,  16.8,   1,1.0000,   0,1.0000,   0,1.0000,   0,1.0000
   45,    52,'1 ', 0.00089, 0.00836,0.07659, 652.53, 652.53, 652.53,  0.00000,  0.00000,  0.00000,  0.00000,1,1,  12.3,   1,1.0000,   0,1.0000,   0,1.0000,   0,1.0000
  206,    45,'1 ', 0.00042, 0.00286,0.02611, 530.03, 530.03, 530.03,  0.00000,  0.00000,  0.00000,  0.00000,1,1,   4.2,   1,1.0000,   0,1.0000,   0,1.0000,   0,1.0000
   45,   212,'1 ', 0.00103, 0.00976,0.08940, 652.53, 652.53, 652.53,  0.00000,  0.00000,  0.00000,  0.00000,1,1,  14.3,   1,1.0000,   0,1.0000,   0,1.0000,   0,1.0000
   46,    47,'1 ', 0.01683, 0.10628,0.02894, 212.01, 212.01, 212.01,  0.00000,  0.00000,  0.00000,  0.00000,1,1,  26.9,   1,1.0000,   0,1.0000,   0,1.0000,   0,1.0000
   47,    63,'1 ', 0.03810, 0.08957,0.02068, 107.32, 107.32, 107.32,  0.00000,  0.00000,  0.00000,  0.00000,1,1,  20.9,   1,1.0000,   0,1.0000,   0,1.0000,   0,1.0000
   48,   150,'1 ', 0.00352, 0.02444,0.21489, 530.03, 530.03, 530.03,  0.00000,  0.00000,  0.00000,  0.00000,1,1,  35.2,   1,1.0000,   0,1.0000,   0,1.0000,   0,1.0000
  182,    48,'1 ', 0.00342, 0.02370,0.20841, 530.03, 530.03, 530.03,  0.00000,  0.00000,  0.00000,  0.00000,1,1,  34.2,   1,1.0000,   0,1.0000,   0,1.0000,   0,1.0000
   49,    65,'1 ', 0.00180, 0.03771,0.02118, 474.70, 474.70, 474.70,  0.00000,  0.00000,  0.00000,  0.00000,1,1,  13.8,   1,1.0000,   0,1.0000,   0,1.0000,   0,1.0000
   50,    65,'1 ', 0.00526, 0.03751,0.01148, 237.35, 237.35, 237.35,  0.00000,  0.00000,  0.00000,  0.00000,1,1,  10.1,   1,1.0000,   0,1.0000,   0,1.0000,   0,1.0000
   51,    68,'1 ', 0.00406, 0.03734,0.01192, 283.00, 283.00, 283.00,  0.00000,  0.00000,  0.00000,  0.00000,1,1,  10.2,   1,1.0000,   0,1.0000,   0,1.0000,   0,1.0000
   51,    72,'1 ', 0.00071, 0.00719,0.00234, 304.04, 304.04, 304.04,  0.00000,  0.00000,  0.00000,  0.00000,1,1,   2.0,   1,1.0000,   0,1.0000,   0,1.0000,   0,1.0000
  183,    52,'1 ', 0.00205, 0.02164,0.20301, 707.51, 707.51, 707.51,  0.00000,  0.00000,  0.00000,  0.00000,1,1,  32.1,   1,1.0000,   0,1.0000,   0,1.0000,   0,1.0000
...